47
3  57.62984921723357
C         	2.021562  	1.593567  	-0.142165 
C         	2.272004  	0.215635  	-0.146833 
C         	3.512388  	-0.275269 	-0.534782 
C         	4.498819  	0.632331  	-0.925353 
C         	4.241945  	2.010462  	-0.919729 
C         	2.993854  	2.500398  	-0.526976 
C         	1.077163  	-0.553591 	0.357342  
N         	-0.015240 	0.563037  	0.381647  
C         	0.692257  	1.844232  	0.233097  
O         	0.004469  	3.034073  	0.078751  
C         	0.519424  	4.133695  	-0.114621 
C         	-1.512238 	2.905068  	0.177579  
C         	-2.130942 	1.598229  	-0.381505 
C         	-1.047472 	0.561997  	-0.754692 
O         	-1.480832 	-0.854390 	-1.157022 
C         	-2.146662 	-1.639487 	-0.043964 
C         	-3.261350 	-1.196953 	0.563573  
C         	-3.914284 	0.101571  	0.233086  
C         	-3.039031 	1.146959  	0.633212  
C         	-1.442688 	-2.906715 	0.383236  
C         	-0.015767 	-2.681077 	0.637597  
C         	0.665980  	-1.841293 	-0.383051 
C         	-0.206771 	-1.584222 	-1.610697 
C         	0.235734  	-2.104929 	1.966592  
N         	1.351178  	-1.094605 	1.766270  
H         	3.727885  	-1.339314 	-0.524236 
H         	5.478073  	0.269830  	-1.229557 
H         	5.020224  	2.706554  	-1.223603 
H         	2.808519  	3.569261  	-0.531093 
H         	-0.525986 	0.581873  	1.353605  
H         	-1.945494 	3.747925  	-0.375914 
H         	-1.778625 	3.053681  	1.231610  
H         	-2.717425 	1.847887  	-1.275293 
H         	-0.566676 	0.977336  	-1.656657 
H         	-2.163009 	-0.798153 	-2.015058 
H         	-3.704628 	-1.767040 	1.376003  
H         	-4.829714 	0.197407  	0.826365  
H         	-4.203210 	0.177257  	-0.821199 
H         	-1.916244 	-3.358477 	1.264361  
H         	-1.549641 	-3.655842 	-0.411665 
H         	1.556222  	-2.396247 	-0.703588 
H         	0.343498  	-0.992097 	-2.352682 
H         	-0.458936 	-2.528891 	-2.110016 
H         	0.525830  	-2.883465 	2.679281  
H         	-0.645089 	-1.594439 	2.374652  
H         	1.348453  	-0.318899 	2.540011  
H         	2.322472  	-1.604865 	1.814083  
