47
0  57.629849261385715
C         	1.983763  	1.642622  	-0.113443 
C         	2.260380  	0.273416  	-0.214446 
C         	3.494693  	-0.165332 	-0.677069 
C         	4.448212  	0.786033  	-1.044530 
C         	4.165200  	2.155240  	-0.942333 
C         	2.923385  	2.592553  	-0.474704 
C         	1.100195  	-0.551499 	0.282578  
N         	-0.011871 	0.537569  	0.416877  
C         	0.664770  	1.840530  	0.324498  
O         	-0.051107 	3.022573  	0.270701  
C         	0.434978  	4.143011  	0.129002  
C         	-1.560310 	2.854908  	0.415637  
C         	-2.174095 	1.572606  	-0.202558 
C         	-1.085495 	0.585425  	-0.679396 
O         	-1.506144 	-0.812001 	-1.154870 
C         	-2.114796 	-1.679479 	-0.070606 
C         	-3.214410 	-1.300045 	0.603447  
C         	-3.904118 	0.002229  	0.379629  
C         	-3.034896 	1.039153  	0.813499  
C         	-1.371097 	-2.955484 	0.249809  
C         	0.059691  	-2.715468 	0.466502  
C         	0.686633  	-1.798866 	-0.522701 
C         	-0.236024 	-1.484294 	-1.699410 
C         	0.349348  	-2.218411 	1.819445  
N         	1.436869  	-1.173675 	1.643611  
H         	3.730908  	-1.223049 	-0.741744 
H         	5.422266  	0.464525  	-1.406104 
H         	4.918056  	2.885638  	-1.229256 
H         	2.717451  	3.655323  	-0.404401 
H         	-0.486334 	0.484450  	1.405807  
H         	-1.790064 	2.931416  	1.485867  
H         	-2.030060 	3.721230  	-0.067369 
H         	-2.798163 	1.865043  	-1.057057 
H         	-0.646722 	1.066739  	-1.569919 
H         	-2.220759 	-0.716863 	-1.982533 
H         	-3.616047 	-1.929343 	1.393515  
H         	-4.798502 	0.040920  	1.010307  
H         	-4.233502 	0.137556  	-0.656670 
H         	-1.802712 	-3.471684 	1.116972  
H         	-1.493113 	-3.655473 	-0.586628 
H         	1.574856  	-2.313295 	-0.909574 
H         	-0.488345 	-2.401048 	-2.248227 
H         	0.274711  	-0.835102 	-2.421663 
H         	0.680738  	-3.033622 	2.470455  
H         	-0.525349 	-1.753630 	2.290453  
H         	2.418927  	-1.664835 	1.624029  
H         	1.448003  	-0.448207 	2.464572  
