47
1  61.172158128835804
C         	2.174624  	1.255920  	-0.156577 
C         	2.231749  	-0.149114 	-0.212773 
C         	3.384378  	-0.789801 	-0.642654 
C         	4.478428  	-0.006933 	-1.019426 
C         	4.414101  	1.394435  	-0.958652 
C         	3.252447  	2.038292  	-0.525519 
C         	0.951834  	-0.760728 	0.304003  
N         	0.026565  	0.491377  	0.290314  
C         	0.893231  	1.667985  	0.237177  
O         	0.343936  	2.938904  	0.147830  
C         	0.969122  	3.989115  	0.046283  
C         	-1.184915 	2.916053  	0.190493  
C         	-1.753793 	1.881794  	-0.806651 
C         	-0.889214 	0.616060  	-0.937788 
O         	-1.609960 	-0.696538 	-1.224604 
C         	-2.351255 	-1.194276 	0.003599  
C         	-3.195059 	-0.435199 	0.730501  
C         	-3.599921 	0.997106  	0.531905  
C         	-3.144959 	1.598609  	-0.667709 
C         	-1.938111 	-2.578372 	0.463910  
C         	-0.482777 	-2.664327 	0.677755  
C         	0.336929  	-2.004628 	-0.377944 
C         	-0.500938 	-1.690881 	-1.618639 
C         	-0.070812 	-2.133084 	1.985608  
N         	1.166035  	-1.287957 	1.728784  
H         	3.452850  	-1.872659 	-0.674109 
H         	5.394758  	-0.486377 	-1.356930 
H         	5.276905  	1.986831  	-1.254632 
H         	3.208842  	3.121789  	-0.491662 
H         	-0.555914 	0.555823  	1.217870  
H         	-1.491543 	2.720881  	1.222573  
H         	-1.569681 	3.911360  	-0.060003 
H         	-1.698665 	2.369476  	-1.790334 
H         	-0.243121 	0.816379  	-1.809319 
H         	-2.302401 	-0.591328 	-2.068058 
H         	-3.636995 	-0.877926 	1.623169  
H         	-4.694632 	1.026646  	0.493907  
H         	-3.306875 	1.594345  	1.400025  
H         	-2.470063 	-2.884613 	1.373817  
H         	-2.237359 	-3.311925 	-0.295474 
H         	1.128714  	-2.710099 	-0.658753 
H         	-0.934965 	-2.609120 	-2.035366 
H         	0.135723  	-1.279213 	-2.411876 
H         	-0.844712 	-1.507842 	2.446856  
H         	0.146147  	-2.949573 	2.681889  
H         	1.280779  	-0.493737 	2.474946  
H         	2.060546  	-1.922931 	1.782237  
